The ``5-text_indentation`` module
======================

Using ``text_indentation``
-------------------


        >>> text_indentation = __import__('5-text_indentation').text_indentation

    case 1:
     return, ok.
     >>> text_indentation("Lorem ipsum dolor sit amet, consectetur adipiscing elit. Quonam modo? Utrum igitur tibi litteram videor an totas paginas commovere? ")
     Lorem ipsum dolor sit amet, consectetur adipiscing elit.
     <BLANKLINE>
     Quonam modo?
     <BLANKLINE>
     Utrum igitur tibi litteram videor an totas paginas commovere?
     <BLANKLINE>

    case 2:
    return, ok.
    >>> text_indentation("    ")

    case 3:
    return, ok.
    >>> text_indentation("  Hi there")
    Hi there

    case 4:
    >>> text_indentation("  well i dont.  follow?   english rules.")
    well i dont.
    <BLANKLINE>
    follow?
    <BLANKLINE>
    english rules.
    <BLANKLINE>

    case 5:
    >>> text_indentation("    Woah now.    This is messy.   ")
    Woah now.
    <BLANKLINE>
    This is messy.
    <BLANKLINE>

    case 6:
    >>> text_indentation("Hi there   ")
    Hi there

    case 7:
    >>> text_indentation("Some  text with a new line: \nPrinted.")
    Some text with a new line:
    <BLANKLINE>
    <BLANKLINE>
    Printed.
    <BLANKLINE>

    case 8:
    >>> text_indentation("\n\n\n We just printed three new lines.")
    <BLANKLINE>
    <BLANKLINE>
    <BLANKLINE>
    We just printed three new lines.
    <BLANKLINE>

    case 9:
    >>> text_indentation("Just a fancy \n new line.")
    Just a fancy
    new line.
    <BLANKLINE>

    case 10:
    >>> text_indentation("Let's print a new-line! Here goes:\nPrinted.")
    Let's print a new-line! Here goes:
    <BLANKLINE>
    <BLANKLINE>
    Printed.
    <BLANKLINE>

    case 11:
    >>> text_indentation("just, a simple-sentence")
    just, a simple-sentence

    case 12:
    >>> text_indentation(50)
    Traceback (most recent call last):
    TypeError: text must be a string

    case 13:
    >>> text_indentation({"points": 50})
    Traceback (most recent call last):
    TypeError: text must be a string

    case 14:
    >>> text_indentation(None)
    Traceback (most recent call last):
    TypeError: text must be a string

    case 15:
    >>> text_indentation("Lorem ipsum dolor sit amet, consectetur adipiscing "
    ... "elit. Quonam modo? Utrum igitur tibi litteram videor an totas paginas "
    ... "commovere? Non autem hoc: igitur ne illud quidem. Fortasse id optimum, "
    ... "sed ubi illud: Plus semper voluptatis? Teneo, inquit, finem illi videri "
    ... "nihil dolere. Transfer idem ad modestiam vel temperantiam, quae est "
    ... "moderatio cupiditatum rationi oboediens. Si id dicis, vicimus. Inde "
    ... "sermone vario sex illa a Dipylo stadia confecimus. Sin aliud quid "
    ... "voles, postea. Quae animi affectio suum cuique tribuens atque hanc, "
    ... "quam dico. Utinam quidem dicerent alium alio beatiorem! Iam ruinas "
    ... "videres") # doctest: +NORMALIZE_WHITESPACE
    Lorem ipsum dolor sit amet, consectetur adipiscing elit.
    <BLANKLINE>
    Quonam modo?
    <BLANKLINE>
    Utrum igitur tibi litteram videor an totas paginas commovere?
    <BLANKLINE>
    Non autem hoc:
    <BLANKLINE>
    igitur ne illud quidem.
    <BLANKLINE>
    Fortasse id optimum, sed ubi illud:
    <BLANKLINE>
    Plus semper voluptatis?
    <BLANKLINE>
    Teneo, inquit, finem illi videri nihil dolere.
    <BLANKLINE>
    Transfer idem ad modestiam vel temperantiam,
    quae est moderatio cupiditatum rationi oboediens.
    <BLANKLINE>
    Si id dicis, vicimus.
    <BLANKLINE>
    Inde sermone vario sex illa a Dipylo stadia confecimus.
    <BLANKLINE>
    Sin aliud quid voles, postea.
    <BLANKLINE>
    Quae animi affectio suum cuique tribuens atque hanc, quam dico.
    <BLANKLINE>
    Utinam quidem dicerent alium alio beatiorem! Iam ruinas videres
